
This summary file was generated by TurbSim (v1.06.00, 21-Sep-2012) on 06-Nov-2019 at 17:19:39.


Runtime Options:

   2318573  Random seed #1
    RANLUX  Type of random number generator
         F  Output binary HH turbulence parameters?
         F  Output formatted turbulence parameters?
         F  Output AeroDyn HH files?
         F  Output AeroDyn FF files?
         T  Output BLADED FF files?
         F  Output tower data?
         F  Output formatted FF files?
         T  Output coherent turbulence time step file?
         T  Clockwise rotation when looking downwind?
 0 -  NONE  IEC turbulence models scaled to exact specified standard deviation


Turbine/Model Specifications:

        37  Vertical grid-point matrix dimension
        33  Horizontal grid-point matrix dimension
     0.100  Time step [seconds]
    30.000  Analysis time [seconds]
    30.000  Usable output time [seconds]
   110.000  Hub height [m]
   180.000  Grid height [m]
   160.000  Grid width [m]
     0.000  Vertical flow angle [degrees]
     0.000  Horizontal flow angle [degrees]


Meteorological Boundary Conditions:

    IECKAI  IEC Kaimal spectral model
         1  IEC standard: IEC 61400-1 Ed. 3: 2005
    10.000  Percent turbulence intensity, IEC 61400-1 Ed. 3: 2005
       NTM  IEC Normal Turbulence Model
       N/A  IEC Extreme Turbulence Model (ETM) "c" parameter [m/s]
       IEC  Wind profile type
   110.000  Reference height [m]
    18.200  Reference wind speed [m/s]
       N/A  Jet height [m]
     0.200  Power law exponent
     0.030  Surface roughness length [m]


Coherent turbulence time step files are not available for IEC or TIDAL spectral models.

WARNING:   A coherent turbulence time step file cannot be generated with the IECKAI model.



You have requested that the following file(s) be generated:

   C:\dev\fast-models\IEA-3.4-130-RWT\TurbSim.wnd (AeroDyn/BLADED full-field wnd file)


Turbulence Simulation Scaling Parameter Summary:

   Turbulence model used                            =  IEC Kaimal
   Turbulence characteristic                        =  User-specified
   IEC standard                                     =  IEC 61400-1 Ed. 3: 2005
   Mean wind speed at hub height                    =   18.200 m/s
   Characteristic value of standard deviation       =    1.820 m/s
   Turbulence scale                                 =   42.000 m
   u-component integral scale                       =  340.200 m
   Coherency scale                                  =  340.200 m
   Characteristic value of hub turbulence intensity =   10.000%
   Gradient Richardson number                       =    0.000

   Wind profile type                                =  Power law on rotor disk, logarithmic elsewhere
   Power law exponent                               =    0.200
   Mean shear across rotor disk                     =    0.039 (m/s)/m
   Assumed rotor diameter                           =  160.000 m
   Surface roughness length                         =    0.030 m

   Number of time steps in the FFT                  =      392
   Number of time steps output                      =      388


Mean Flow Angles:

   Vertical   =   0.0 degrees
   Horizontal =   0.0 degrees

Mean Wind Speed Profile:

   Height    Wind Speed   Horizontal Angle  U-comp (X)   V-comp (Y)   W-comp (Z)
     (m)        (m/s)         (degrees)       (m/s)        (m/s)        (m/s)   
   ------    ----------   ----------------  ----------   ----------   ----------
    190.0       20.30            0.00         20.30         0.00         0.00
    185.0       20.19            0.00         20.19         0.00         0.00
    180.0       20.08            0.00         20.08         0.00         0.00
    175.0       19.97            0.00         19.97         0.00         0.00
    170.0       19.86            0.00         19.86         0.00         0.00
    165.0       19.74            0.00         19.74         0.00         0.00
    160.0       19.62            0.00         19.62         0.00         0.00
    155.0       19.49            0.00         19.49         0.00         0.00
    150.0       19.36            0.00         19.36         0.00         0.00
    145.0       19.23            0.00         19.23         0.00         0.00
    140.0       19.10            0.00         19.10         0.00         0.00
    135.0       18.96            0.00         18.96         0.00         0.00
    130.0       18.82            0.00         18.82         0.00         0.00
    125.0       18.67            0.00         18.67         0.00         0.00
    120.0       18.52            0.00         18.52         0.00         0.00
    115.0       18.36            0.00         18.36         0.00         0.00
    110.0       18.20            0.00         18.20         0.00         0.00
    105.0       18.03            0.00         18.03         0.00         0.00
    100.0       17.86            0.00         17.86         0.00         0.00
     95.0       17.67            0.00         17.67         0.00         0.00
     90.0       17.48            0.00         17.48         0.00         0.00
     85.0       17.29            0.00         17.29         0.00         0.00
     80.0       17.08            0.00         17.08         0.00         0.00
     75.0       16.86            0.00         16.86         0.00         0.00
     70.0       16.63            0.00         16.63         0.00         0.00
     65.0       16.38            0.00         16.38         0.00         0.00
     60.0       16.12            0.00         16.12         0.00         0.00
     55.0       15.84            0.00         15.84         0.00         0.00
     50.0       15.54            0.00         15.54         0.00         0.00
     45.0       15.22            0.00         15.22         0.00         0.00
     40.0       14.87            0.00         14.87         0.00         0.00
     35.0       14.47            0.00         14.47         0.00         0.00
     30.0       14.04            0.00         14.04         0.00         0.00
     25.0       14.91            0.00         14.91         0.00         0.00
     20.0       14.42            0.00         14.42         0.00         0.00
     15.0       13.78            0.00         13.78         0.00         0.00
     10.0       12.88            0.00         12.88         0.00         0.00


Harvested Random Seeds after Generation of the Random Numbers:

      6670834 K1
            0 K2


Hub-Height Simulated Turbulence Statistical Summary:

   Type of Wind        Min (m/s)   Mean (m/s)    Max (m/s)  Sigma (m/s)       TI (%)
   ----------------    ---------   ----------    ---------  -----------       ------
   Longitudinal (u)        15.52        18.20        20.80        0.952        5.228
   Lateral (v)             -2.35         0.00         3.29        1.242        6.822
   Vertical (w)            -2.33         0.00         2.16        0.839        4.610
   U component             15.52        18.20        20.80        0.952        5.228
   V component             -2.35         0.00         3.29        1.242        6.822
   W component             -2.33         0.00         2.16        0.839        4.610
   Horizontal (U&V)        15.52        18.24        20.80        0.942        5.166
   Total                   15.53        18.26        20.80        0.937        5.133

                       Min Reynolds     Mean Reynolds    Max Reynolds    Correlation
   Product             Stress (m/s)^2   Stress (m/s)^2   Stress (m/s)^2  Coefficient
   ----------------    --------------   --------------   --------------  -----------
   u'w'                     -3.333            -0.089             4.073        -0.112
   u'v'                     -5.543            -0.459             3.576        -0.388
   v'w'                     -5.221             0.037             5.171         0.036


   Friction Velocity (Ustar)  =      0.299 m/s
   Maximum Instantaneous TKE  =      7.633 (m/s)^2
   Maximum Instantaneous CTKE =      4.318 (m/s)^2


Grid Point Variance Summary:

   Y-coord  -80.00  -75.00  -70.00  -65.00  -60.00  -55.00  -50.00  -45.00  -40.00  -35.00  -30.00  -25.00  -20.00  -15.00  -10.00   -5.00    0.00    5.00   10.00   15.00   20.00   25.00   30.00   35.00   40.00   45.00   50.00   55.00   60.00   65.00   70.00   75.00   80.00

   Height   Standard deviation at grid points for the u component:
   190.00    1.941   1.485   1.573   1.478   1.192   1.395   1.232   1.236   1.229   1.255   1.192   1.505   1.259   1.172   1.236   1.086   1.102   1.103   1.012   1.075   1.033   1.336   1.309   1.428   1.249   1.138   1.011   1.256   0.971   1.059   0.986   1.162   1.003
   185.00    1.931   1.651   1.394   1.424   1.197   1.118   1.189   1.176   1.218   1.160   1.292   1.410   1.324   1.395   1.289   1.210   1.411   1.353   1.406   1.067   1.199   1.477   1.248   1.507   1.456   1.396   1.345   1.087   1.061   1.244   1.277   1.078   1.097
   180.00    1.960   1.803   1.585   1.159   1.048   0.992   0.954   1.132   1.143   1.154   1.122   1.233   1.447   1.291   1.104   1.447   1.571   1.541   1.327   1.189   1.369   1.496   1.339   1.323   1.447   1.238   1.224   0.954   0.953   1.166   1.244   0.965   1.163
   175.00    1.765   1.735   1.346   1.074   0.886   0.994   0.914   0.972   1.075   1.062   1.137   1.039   1.410   1.542   1.382   1.634   1.800   1.486   1.315   1.436   1.283   1.327   1.339   1.405   1.248   1.319   1.259   1.164   1.047   1.107   1.075   1.296   1.080
   170.00    1.416   1.488   1.306   1.191   1.073   1.093   1.016   1.022   1.006   1.124   1.120   0.934   1.173   1.262   1.306   1.491   1.753   1.487   1.585   1.625   1.422   1.283   1.367   1.329   1.260   1.274   1.263   0.995   1.110   1.158   1.115   1.118   1.511
   165.00    1.223   1.123   1.135   0.904   1.088   1.031   1.074   0.810   1.152   1.142   1.138   0.964   1.017   0.926   1.065   1.241   1.361   1.643   1.721   1.555   1.562   1.583   1.316   1.035   1.051   1.123   1.013   1.181   1.234   1.103   0.971   1.197   1.263
   160.00    1.134   0.987   1.037   1.041   1.120   0.986   0.999   0.997   1.077   1.236   1.098   1.127   1.130   1.059   0.851   1.006   1.385   1.487   1.529   1.515   1.528   1.635   1.350   1.413   1.287   1.443   1.185   1.172   0.951   0.904   1.051   1.345   1.618
   155.00    1.066   1.121   1.063   1.093   1.207   1.143   1.004   0.952   0.931   1.199   1.199   1.142   0.928   0.876   0.883   0.889   1.185   1.379   1.324   1.431   1.564   1.539   1.440   1.379   1.646   1.621   1.244   1.330   1.064   0.953   1.109   1.427   1.491
   150.00    1.076   1.200   1.182   1.084   1.130   1.126   1.099   1.102   0.975   1.187   1.160   1.000   1.108   1.041   1.003   1.104   0.878   1.070   1.248   1.344   1.241   1.409   1.579   1.427   1.298   1.635   1.574   1.440   1.421   1.220   1.286   1.500   1.396
   145.00    1.160   1.110   0.970   0.979   1.119   1.058   1.127   0.981   1.181   1.189   1.273   1.022   1.068   0.980   0.924   1.006   0.826   0.897   0.918   1.114   1.228   1.190   1.340   1.615   1.686   1.572   1.635   1.478   1.141   1.230   1.270   1.316   1.347
   140.00    0.982   0.852   0.932   0.974   1.127   0.905   1.153   1.205   1.234   1.021   1.141   1.067   1.092   1.096   0.811   0.989   0.991   0.930   0.982   0.961   1.101   1.240   1.292   1.544   1.713   1.733   1.692   1.238   1.217   1.191   1.195   1.332   1.131
   135.00    1.101   1.021   0.917   0.937   0.964   1.035   1.181   0.915   1.001   1.339   1.063   1.021   0.955   1.210   1.055   1.120   1.118   0.867   1.075   1.156   1.174   0.994   1.238   1.527   1.523   1.734   1.566   1.292   1.147   1.041   1.068   1.348   1.293
   130.00    0.929   1.074   0.963   0.940   1.032   1.064   1.109   0.942   1.117   1.257   1.189   1.043   1.141   1.115   1.002   0.876   0.893   0.904   0.968   1.145   0.962   0.974   1.119   1.248   1.444   1.586   1.309   1.353   1.351   1.297   1.656   1.460   1.065
   125.00    1.087   1.167   1.110   1.024   1.067   0.801   1.194   1.318   1.136   1.109   1.106   1.125   1.023   1.272   0.979   0.892   0.915   1.133   1.091   1.018   0.883   1.001   1.122   1.317   1.352   1.460   1.272   1.277   1.004   1.382   1.576   1.384   1.332
   120.00    1.159   1.125   0.977   1.106   0.887   1.030   1.317   1.280   1.198   1.132   0.935   0.913   1.032   1.123   1.320   1.200   1.039   1.162   1.141   1.168   1.077   0.982   1.265   1.207   1.228   1.043   1.281   1.087   1.163   1.379   1.421   1.398   1.441
   115.00    1.076   1.189   0.953   0.999   1.199   1.061   1.220   1.391   1.242   1.087   1.011   0.800   0.847   0.957   0.976   1.046   1.112   0.933   1.075   0.950   1.031   1.086   1.162   1.196   1.093   1.139   1.223   1.209   1.149   1.220   1.229   1.245   1.423
   110.00    1.279   1.250   1.211   1.246   1.027   1.177   1.213   1.243   1.109   0.970   0.841   0.953   0.815   0.889   0.818   0.988   0.952   0.975   0.859   0.930   0.986   0.840   1.013   1.087   1.057   1.130   0.973   1.029   1.058   1.138   1.212   1.183   1.177
   105.00    1.204   1.505   1.365   1.186   1.165   1.079   1.268   1.246   1.186   0.988   0.899   0.972   0.820   0.852   1.006   0.849   0.850   0.965   1.073   1.129   1.010   1.065   1.176   1.217   1.178   0.989   1.026   1.079   1.041   0.973   0.941   1.104   1.264
   100.00    1.517   1.676   1.523   1.559   1.497   1.141   1.036   1.196   1.093   0.916   0.957   0.784   0.955   0.918   0.975   0.883   0.926   0.863   0.910   1.099   0.972   0.960   1.126   1.215   1.151   1.036   1.173   1.361   1.023   0.820   0.906   1.119   1.317
    95.00    1.749   1.640   1.612   1.327   1.406   1.178   1.138   1.193   1.245   1.109   1.045   0.946   1.016   1.164   1.236   1.146   0.911   0.893   0.927   1.146   0.932   0.959   1.169   1.146   1.143   1.058   1.217   1.235   1.201   0.919   0.945   0.910   1.125
    90.00    1.624   1.433   1.270   1.391   1.449   1.258   1.243   1.327   1.055   1.077   0.882   1.033   1.034   1.112   1.127   1.186   1.154   1.124   1.107   1.086   1.165   1.265   1.023   1.072   1.130   1.065   1.066   1.027   1.169   1.053   1.044   0.932   1.173
    85.00    1.490   1.095   1.353   1.460   1.359   1.271   1.272   1.228   1.119   1.085   0.907   1.161   1.101   1.025   1.185   1.106   1.057   1.018   1.226   1.033   1.058   1.182   1.135   0.975   1.117   0.880   0.768   1.000   1.202   1.077   0.927   1.004   1.108
    80.00    1.252   1.219   1.228   1.285   1.225   1.181   1.333   1.312   1.345   1.248   1.052   1.055   1.191   0.944   1.025   1.011   0.979   1.001   1.115   1.261   1.144   1.149   0.967   0.911   0.845   0.752   0.939   1.176   1.181   1.345   1.041   0.835   0.891
    75.00    1.132   1.117   0.978   1.082   1.009   1.120   1.222   1.334   1.294   1.236   1.453   1.246   1.220   1.023   0.948   1.038   1.160   1.182   1.281   1.292   1.156   1.086   0.989   0.852   1.067   1.003   1.107   1.101   1.445   1.317   1.293   1.083   0.885
    70.00    1.400   1.207   1.242   1.169   1.090   1.094   1.159   1.045   1.484   1.445   1.354   1.285   1.055   1.090   1.041   1.028   1.087   1.121   1.059   0.985   0.961   0.888   1.014   1.108   1.103   1.145   1.038   1.232   1.634   1.523   1.372   1.346   1.139
    65.00    1.413   0.938   1.191   1.341   1.154   1.054   1.059   1.117   1.337   1.425   1.415   1.365   1.140   1.063   1.101   1.133   1.200   0.878   0.953   1.002   0.879   0.914   1.024   1.050   1.133   1.079   0.832   1.154   1.503   1.349   1.560   1.515   1.453
    60.00    1.227   1.087   1.165   1.101   1.259   0.956   0.917   0.980   1.154   1.494   1.441   1.424   1.402   1.185   1.322   1.161   0.992   0.958   0.969   1.037   0.990   0.979   1.091   0.968   0.829   0.905   1.156   1.135   1.386   1.304   1.454   1.370   1.177
    55.00    1.064   1.000   1.050   0.933   1.154   0.902   1.220   1.156   1.263   1.481   1.410   1.617   1.398   1.310   1.199   1.168   1.244   0.998   1.053   1.043   0.938   0.968   1.033   0.993   1.052   1.005   0.931   1.105   1.386   1.415   1.455   1.593   1.402
    50.00    0.953   1.060   0.917   1.105   1.186   1.135   1.213   1.358   1.490   1.629   1.455   1.424   1.233   1.374   1.140   1.221   1.436   1.098   1.123   1.225   1.279   1.299   1.047   1.101   1.027   0.855   0.964   1.053   1.193   1.516   1.348   1.447   1.198
    45.00    0.930   1.082   1.015   0.926   1.126   1.006   1.090   1.072   1.088   1.358   1.368   1.368   1.137   1.186   1.352   1.484   1.627   1.416   1.270   1.465   1.484   1.473   0.885   1.238   1.129   1.034   1.086   0.967   1.158   1.117   1.357   1.379   1.151
    40.00    1.088   1.232   1.224   1.209   1.209   1.314   1.386   1.114   1.024   1.155   1.380   1.317   1.267   1.632   1.577   1.458   1.683   1.482   1.360   1.390   1.291   1.105   0.959   1.083   1.257   1.009   1.173   0.810   0.995   0.974   1.183   1.209   1.299
    35.00    1.101   1.301   1.193   1.379   1.594   1.396   1.424   1.590   1.292   1.290   1.283   1.443   1.598   1.488   1.448   1.309   1.392   1.588   1.439   1.231   0.938   0.847   0.979   1.178   1.027   1.110   1.176   0.949   0.911   1.140   1.281   1.481   1.236
    30.00    1.434   1.008   1.184   1.321   1.240   1.174   1.358   1.542   1.450   1.142   1.136   1.283   1.485   1.421   1.301   1.273   1.499   1.549   1.268   1.261   0.929   0.783   0.884   1.255   1.167   1.401   1.192   1.031   1.084   1.052   1.150   1.343   1.272
    25.00    1.341   0.980   1.043   1.245   1.240   1.309   1.357   1.151   1.215   1.249   1.206   1.122   1.295   1.480   1.449   1.573   1.668   1.317   1.098   1.134   1.130   0.897   0.892   1.097   1.364   1.586   1.486   1.221   1.161   1.397   1.266   1.275   1.222
    20.00    1.482   1.043   1.074   1.155   1.020   0.960   1.039   0.966   0.941   1.326   1.255   1.048   1.103   1.113   1.374   1.533   1.552   1.478   1.153   1.129   1.062   0.797   0.998   1.205   1.306   1.538   1.689   1.575   1.570   1.340   1.268   1.140   1.371
    15.00    1.159   1.194   1.048   1.014   1.193   1.171   1.135   1.174   1.214   1.219   1.237   1.474   1.199   1.351   1.412   1.565   1.508   1.195   1.080   0.820   0.943   0.960   1.007   1.273   1.376   1.390   1.420   1.493   1.298   1.282   1.585   1.218   1.211
    10.00    1.301   0.996   1.232   0.995   1.198   0.923   0.908   1.163   1.112   1.088   1.250   1.290   1.172   1.258   1.512   1.468   1.209   1.201   1.159   1.171   0.964   1.056   1.249   1.306   1.345   1.301   1.156   1.199   1.128   1.291   1.447   1.163   1.317

   Height   Standard deviation at grid points for the v component:
   190.00    1.242   1.242   1.242   1.242   1.242   1.242   1.242   1.242   1.242   1.242   1.242   1.242   1.242   1.242   1.242   1.242   1.242   1.242   1.242   1.242   1.242   1.242   1.242   1.242   1.242   1.242   1.242   1.242   1.242   1.242   1.242   1.242   1.242
   185.00    1.242   1.242   1.242   1.242   1.242   1.242   1.242   1.242   1.242   1.242   1.242   1.242   1.242   1.242   1.242   1.242   1.242   1.242   1.242   1.242   1.242   1.242   1.242   1.242   1.242   1.242   1.242   1.242   1.242   1.242   1.242   1.242   1.242
   180.00    1.242   1.242   1.242   1.242   1.242   1.242   1.242   1.242   1.242   1.242   1.242   1.242   1.242   1.242   1.242   1.242   1.242   1.242   1.242   1.242   1.242   1.242   1.242   1.242   1.242   1.242   1.242   1.242   1.242   1.242   1.242   1.242   1.242
   175.00    1.242   1.242   1.242   1.242   1.242   1.242   1.242   1.242   1.242   1.242   1.242   1.242   1.242   1.242   1.242   1.242   1.242   1.242   1.242   1.242   1.242   1.242   1.242   1.242   1.242   1.242   1.242   1.242   1.242   1.242   1.242   1.242   1.242
   170.00    1.242   1.242   1.242   1.242   1.242   1.242   1.242   1.242   1.242   1.242   1.242   1.242   1.242   1.242   1.242   1.242   1.242   1.242   1.242   1.242   1.242   1.242   1.242   1.242   1.242   1.242   1.242   1.242   1.242   1.242   1.242   1.242   1.242
   165.00    1.242   1.242   1.242   1.242   1.242   1.242   1.242   1.242   1.242   1.242   1.242   1.242   1.242   1.242   1.242   1.242   1.242   1.242   1.242   1.242   1.242   1.242   1.242   1.242   1.242   1.242   1.242   1.242   1.242   1.242   1.242   1.242   1.242
   160.00    1.242   1.242   1.242   1.242   1.242   1.242   1.242   1.242   1.242   1.242   1.242   1.242   1.242   1.242   1.242   1.242   1.242   1.242   1.242   1.242   1.242   1.242   1.242   1.242   1.242   1.242   1.242   1.242   1.242   1.242   1.242   1.242   1.242
   155.00    1.242   1.242   1.242   1.242   1.242   1.242   1.242   1.242   1.242   1.242   1.242   1.242   1.242   1.242   1.242   1.242   1.242   1.242   1.242   1.242   1.242   1.242   1.242   1.242   1.242   1.242   1.242   1.242   1.242   1.242   1.242   1.242   1.242
   150.00    1.242   1.242   1.242   1.242   1.242   1.242   1.242   1.242   1.242   1.242   1.242   1.242   1.242   1.242   1.242   1.242   1.242   1.242   1.242   1.242   1.242   1.242   1.242   1.242   1.242   1.242   1.242   1.242   1.242   1.242   1.242   1.242   1.242
   145.00    1.242   1.242   1.242   1.242   1.242   1.242   1.242   1.242   1.242   1.242   1.242   1.242   1.242   1.242   1.242   1.242   1.242   1.242   1.242   1.242   1.242   1.242   1.242   1.242   1.242   1.242   1.242   1.242   1.242   1.242   1.242   1.242   1.242
   140.00    1.242   1.242   1.242   1.242   1.242   1.242   1.242   1.242   1.242   1.242   1.242   1.242   1.242   1.242   1.242   1.242   1.242   1.242   1.242   1.242   1.242   1.242   1.242   1.242   1.242   1.242   1.242   1.242   1.242   1.242   1.242   1.242   1.242
   135.00    1.242   1.242   1.242   1.242   1.242   1.242   1.242   1.242   1.242   1.242   1.242   1.242   1.242   1.242   1.242   1.242   1.242   1.242   1.242   1.242   1.242   1.242   1.242   1.242   1.242   1.242   1.242   1.242   1.242   1.242   1.242   1.242   1.242
   130.00    1.242   1.242   1.242   1.242   1.242   1.242   1.242   1.242   1.242   1.242   1.242   1.242   1.242   1.242   1.242   1.242   1.242   1.242   1.242   1.242   1.242   1.242   1.242   1.242   1.242   1.242   1.242   1.242   1.242   1.242   1.242   1.242   1.242
   125.00    1.242   1.242   1.242   1.242   1.242   1.242   1.242   1.242   1.242   1.242   1.242   1.242   1.242   1.242   1.242   1.242   1.242   1.242   1.242   1.242   1.242   1.242   1.242   1.242   1.242   1.242   1.242   1.242   1.242   1.242   1.242   1.242   1.242
   120.00    1.242   1.242   1.242   1.242   1.242   1.242   1.242   1.242   1.242   1.242   1.242   1.242   1.242   1.242   1.242   1.242   1.242   1.242   1.242   1.242   1.242   1.242   1.242   1.242   1.242   1.242   1.242   1.242   1.242   1.242   1.242   1.242   1.242
   115.00    1.242   1.242   1.242   1.242   1.242   1.242   1.242   1.242   1.242   1.242   1.242   1.242   1.242   1.242   1.242   1.242   1.242   1.242   1.242   1.242   1.242   1.242   1.242   1.242   1.242   1.242   1.242   1.242   1.242   1.242   1.242   1.242   1.242
   110.00    1.242   1.242   1.242   1.242   1.242   1.242   1.242   1.242   1.242   1.242   1.242   1.242   1.242   1.242   1.242   1.242   1.242   1.242   1.242   1.242   1.242   1.242   1.242   1.242   1.242   1.242   1.242   1.242   1.242   1.242   1.242   1.242   1.242
   105.00    1.242   1.242   1.242   1.242   1.242   1.242   1.242   1.242   1.242   1.242   1.242   1.242   1.242   1.242   1.242   1.242   1.242   1.242   1.242   1.242   1.242   1.242   1.242   1.242   1.242   1.242   1.242   1.242   1.242   1.242   1.242   1.242   1.242
   100.00    1.242   1.242   1.242   1.242   1.242   1.242   1.242   1.242   1.242   1.242   1.242   1.242   1.242   1.242   1.242   1.242   1.242   1.242   1.242   1.242   1.242   1.242   1.242   1.242   1.242   1.242   1.242   1.242   1.242   1.242   1.242   1.242   1.242
    95.00    1.242   1.242   1.242   1.242   1.242   1.242   1.242   1.242   1.242   1.242   1.242   1.242   1.242   1.242   1.242   1.242   1.242   1.242   1.242   1.242   1.242   1.242   1.242   1.242   1.242   1.242   1.242   1.242   1.242   1.242   1.242   1.242   1.242
    90.00    1.242   1.242   1.242   1.242   1.242   1.242   1.242   1.242   1.242   1.242   1.242   1.242   1.242   1.242   1.242   1.242   1.242   1.242   1.242   1.242   1.242   1.242   1.242   1.242   1.242   1.242   1.242   1.242   1.242   1.242   1.242   1.242   1.242
    85.00    1.242   1.242   1.242   1.242   1.242   1.242   1.242   1.242   1.242   1.242   1.242   1.242   1.242   1.242   1.242   1.242   1.242   1.242   1.242   1.242   1.242   1.242   1.242   1.242   1.242   1.242   1.242   1.242   1.242   1.242   1.242   1.242   1.242
    80.00    1.242   1.242   1.242   1.242   1.242   1.242   1.242   1.242   1.242   1.242   1.242   1.242   1.242   1.242   1.242   1.242   1.242   1.242   1.242   1.242   1.242   1.242   1.242   1.242   1.242   1.242   1.242   1.242   1.242   1.242   1.242   1.242   1.242
    75.00    1.242   1.242   1.242   1.242   1.242   1.242   1.242   1.242   1.242   1.242   1.242   1.242   1.242   1.242   1.242   1.242   1.242   1.242   1.242   1.242   1.242   1.242   1.242   1.242   1.242   1.242   1.242   1.242   1.242   1.242   1.242   1.242   1.242
    70.00    1.242   1.242   1.242   1.242   1.242   1.242   1.242   1.242   1.242   1.242   1.242   1.242   1.242   1.242   1.242   1.242   1.242   1.242   1.242   1.242   1.242   1.242   1.242   1.242   1.242   1.242   1.242   1.242   1.242   1.242   1.242   1.242   1.242
    65.00    1.242   1.242   1.242   1.242   1.242   1.242   1.242   1.242   1.242   1.242   1.242   1.242   1.242   1.242   1.242   1.242   1.242   1.242   1.242   1.242   1.242   1.242   1.242   1.242   1.242   1.242   1.242   1.242   1.242   1.242   1.242   1.242   1.242
    60.00    1.242   1.242   1.242   1.242   1.242   1.242   1.242   1.242   1.242   1.242   1.242   1.242   1.242   1.242   1.242   1.242   1.242   1.242   1.242   1.242   1.242   1.242   1.242   1.242   1.242   1.242   1.242   1.242   1.242   1.242   1.242   1.242   1.242
    55.00    1.242   1.242   1.242   1.242   1.242   1.242   1.242   1.242   1.242   1.242   1.242   1.242   1.242   1.242   1.242   1.242   1.242   1.242   1.242   1.242   1.242   1.242   1.242   1.242   1.242   1.242   1.242   1.242   1.242   1.242   1.242   1.242   1.242
    50.00    1.242   1.242   1.242   1.242   1.242   1.242   1.242   1.242   1.242   1.242   1.242   1.242   1.242   1.242   1.242   1.242   1.242   1.242   1.242   1.242   1.242   1.242   1.242   1.242   1.242   1.242   1.242   1.242   1.242   1.242   1.242   1.242   1.242
    45.00    1.242   1.242   1.242   1.242   1.242   1.242   1.242   1.242   1.242   1.242   1.242   1.242   1.242   1.242   1.242   1.242   1.242   1.242   1.242   1.242   1.242   1.242   1.242   1.242   1.242   1.242   1.242   1.242   1.242   1.242   1.242   1.242   1.242
    40.00    1.242   1.242   1.242   1.242   1.242   1.242   1.242   1.242   1.242   1.242   1.242   1.242   1.242   1.242   1.242   1.242   1.242   1.242   1.242   1.242   1.242   1.242   1.242   1.242   1.242   1.242   1.242   1.242   1.242   1.242   1.242   1.242   1.242
    35.00    1.242   1.242   1.242   1.242   1.242   1.242   1.242   1.242   1.242   1.242   1.242   1.242   1.242   1.242   1.242   1.242   1.242   1.242   1.242   1.242   1.242   1.242   1.242   1.242   1.242   1.242   1.242   1.242   1.242   1.242   1.242   1.242   1.242
    30.00    1.242   1.242   1.242   1.242   1.242   1.242   1.242   1.242   1.242   1.242   1.242   1.242   1.242   1.242   1.242   1.242   1.242   1.242   1.242   1.242   1.242   1.242   1.242   1.242   1.242   1.242   1.242   1.242   1.242   1.242   1.242   1.242   1.242
    25.00    1.242   1.242   1.242   1.242   1.242   1.242   1.242   1.242   1.242   1.242   1.242   1.242   1.242   1.242   1.242   1.242   1.242   1.242   1.242   1.242   1.242   1.242   1.242   1.242   1.242   1.242   1.242   1.242   1.242   1.242   1.242   1.242   1.242
    20.00    1.242   1.242   1.242   1.242   1.242   1.242   1.242   1.242   1.242   1.242   1.242   1.242   1.242   1.242   1.242   1.242   1.242   1.242   1.242   1.242   1.242   1.242   1.242   1.242   1.242   1.242   1.242   1.242   1.242   1.242   1.242   1.242   1.242
    15.00    1.242   1.242   1.242   1.242   1.242   1.242   1.242   1.242   1.242   1.242   1.242   1.242   1.242   1.242   1.242   1.242   1.242   1.242   1.242   1.242   1.242   1.242   1.242   1.242   1.242   1.242   1.242   1.242   1.242   1.242   1.242   1.242   1.242
    10.00    1.242   1.242   1.242   1.242   1.242   1.242   1.242   1.242   1.242   1.242   1.242   1.242   1.242   1.242   1.242   1.242   1.242   1.242   1.242   1.242   1.242   1.242   1.242   1.242   1.242   1.242   1.242   1.242   1.242   1.242   1.242   1.242   1.242

   Height   Standard deviation at grid points for the w component:
   190.00    0.839   0.839   0.839   0.839   0.839   0.839   0.839   0.839   0.839   0.839   0.839   0.839   0.839   0.839   0.839   0.839   0.839   0.839   0.839   0.839   0.839   0.839   0.839   0.839   0.839   0.839   0.839   0.839   0.839   0.839   0.839   0.839   0.839
   185.00    0.839   0.839   0.839   0.839   0.839   0.839   0.839   0.839   0.839   0.839   0.839   0.839   0.839   0.839   0.839   0.839   0.839   0.839   0.839   0.839   0.839   0.839   0.839   0.839   0.839   0.839   0.839   0.839   0.839   0.839   0.839   0.839   0.839
   180.00    0.839   0.839   0.839   0.839   0.839   0.839   0.839   0.839   0.839   0.839   0.839   0.839   0.839   0.839   0.839   0.839   0.839   0.839   0.839   0.839   0.839   0.839   0.839   0.839   0.839   0.839   0.839   0.839   0.839   0.839   0.839   0.839   0.839
   175.00    0.839   0.839   0.839   0.839   0.839   0.839   0.839   0.839   0.839   0.839   0.839   0.839   0.839   0.839   0.839   0.839   0.839   0.839   0.839   0.839   0.839   0.839   0.839   0.839   0.839   0.839   0.839   0.839   0.839   0.839   0.839   0.839   0.839
   170.00    0.839   0.839   0.839   0.839   0.839   0.839   0.839   0.839   0.839   0.839   0.839   0.839   0.839   0.839   0.839   0.839   0.839   0.839   0.839   0.839   0.839   0.839   0.839   0.839   0.839   0.839   0.839   0.839   0.839   0.839   0.839   0.839   0.839
   165.00    0.839   0.839   0.839   0.839   0.839   0.839   0.839   0.839   0.839   0.839   0.839   0.839   0.839   0.839   0.839   0.839   0.839   0.839   0.839   0.839   0.839   0.839   0.839   0.839   0.839   0.839   0.839   0.839   0.839   0.839   0.839   0.839   0.839
   160.00    0.839   0.839   0.839   0.839   0.839   0.839   0.839   0.839   0.839   0.839   0.839   0.839   0.839   0.839   0.839   0.839   0.839   0.839   0.839   0.839   0.839   0.839   0.839   0.839   0.839   0.839   0.839   0.839   0.839   0.839   0.839   0.839   0.839
   155.00    0.839   0.839   0.839   0.839   0.839   0.839   0.839   0.839   0.839   0.839   0.839   0.839   0.839   0.839   0.839   0.839   0.839   0.839   0.839   0.839   0.839   0.839   0.839   0.839   0.839   0.839   0.839   0.839   0.839   0.839   0.839   0.839   0.839
   150.00    0.839   0.839   0.839   0.839   0.839   0.839   0.839   0.839   0.839   0.839   0.839   0.839   0.839   0.839   0.839   0.839   0.839   0.839   0.839   0.839   0.839   0.839   0.839   0.839   0.839   0.839   0.839   0.839   0.839   0.839   0.839   0.839   0.839
   145.00    0.839   0.839   0.839   0.839   0.839   0.839   0.839   0.839   0.839   0.839   0.839   0.839   0.839   0.839   0.839   0.839   0.839   0.839   0.839   0.839   0.839   0.839   0.839   0.839   0.839   0.839   0.839   0.839   0.839   0.839   0.839   0.839   0.839
   140.00    0.839   0.839   0.839   0.839   0.839   0.839   0.839   0.839   0.839   0.839   0.839   0.839   0.839   0.839   0.839   0.839   0.839   0.839   0.839   0.839   0.839   0.839   0.839   0.839   0.839   0.839   0.839   0.839   0.839   0.839   0.839   0.839   0.839
   135.00    0.839   0.839   0.839   0.839   0.839   0.839   0.839   0.839   0.839   0.839   0.839   0.839   0.839   0.839   0.839   0.839   0.839   0.839   0.839   0.839   0.839   0.839   0.839   0.839   0.839   0.839   0.839   0.839   0.839   0.839   0.839   0.839   0.839
   130.00    0.839   0.839   0.839   0.839   0.839   0.839   0.839   0.839   0.839   0.839   0.839   0.839   0.839   0.839   0.839   0.839   0.839   0.839   0.839   0.839   0.839   0.839   0.839   0.839   0.839   0.839   0.839   0.839   0.839   0.839   0.839   0.839   0.839
   125.00    0.839   0.839   0.839   0.839   0.839   0.839   0.839   0.839   0.839   0.839   0.839   0.839   0.839   0.839   0.839   0.839   0.839   0.839   0.839   0.839   0.839   0.839   0.839   0.839   0.839   0.839   0.839   0.839   0.839   0.839   0.839   0.839   0.839
   120.00    0.839   0.839   0.839   0.839   0.839   0.839   0.839   0.839   0.839   0.839   0.839   0.839   0.839   0.839   0.839   0.839   0.839   0.839   0.839   0.839   0.839   0.839   0.839   0.839   0.839   0.839   0.839   0.839   0.839   0.839   0.839   0.839   0.839
   115.00    0.839   0.839   0.839   0.839   0.839   0.839   0.839   0.839   0.839   0.839   0.839   0.839   0.839   0.839   0.839   0.839   0.839   0.839   0.839   0.839   0.839   0.839   0.839   0.839   0.839   0.839   0.839   0.839   0.839   0.839   0.839   0.839   0.839
   110.00    0.839   0.839   0.839   0.839   0.839   0.839   0.839   0.839   0.839   0.839   0.839   0.839   0.839   0.839   0.839   0.839   0.839   0.839   0.839   0.839   0.839   0.839   0.839   0.839   0.839   0.839   0.839   0.839   0.839   0.839   0.839   0.839   0.839
   105.00    0.839   0.839   0.839   0.839   0.839   0.839   0.839   0.839   0.839   0.839   0.839   0.839   0.839   0.839   0.839   0.839   0.839   0.839   0.839   0.839   0.839   0.839   0.839   0.839   0.839   0.839   0.839   0.839   0.839   0.839   0.839   0.839   0.839
   100.00    0.839   0.839   0.839   0.839   0.839   0.839   0.839   0.839   0.839   0.839   0.839   0.839   0.839   0.839   0.839   0.839   0.839   0.839   0.839   0.839   0.839   0.839   0.839   0.839   0.839   0.839   0.839   0.839   0.839   0.839   0.839   0.839   0.839
    95.00    0.839   0.839   0.839   0.839   0.839   0.839   0.839   0.839   0.839   0.839   0.839   0.839   0.839   0.839   0.839   0.839   0.839   0.839   0.839   0.839   0.839   0.839   0.839   0.839   0.839   0.839   0.839   0.839   0.839   0.839   0.839   0.839   0.839
    90.00    0.839   0.839   0.839   0.839   0.839   0.839   0.839   0.839   0.839   0.839   0.839   0.839   0.839   0.839   0.839   0.839   0.839   0.839   0.839   0.839   0.839   0.839   0.839   0.839   0.839   0.839   0.839   0.839   0.839   0.839   0.839   0.839   0.839
    85.00    0.839   0.839   0.839   0.839   0.839   0.839   0.839   0.839   0.839   0.839   0.839   0.839   0.839   0.839   0.839   0.839   0.839   0.839   0.839   0.839   0.839   0.839   0.839   0.839   0.839   0.839   0.839   0.839   0.839   0.839   0.839   0.839   0.839
    80.00    0.839   0.839   0.839   0.839   0.839   0.839   0.839   0.839   0.839   0.839   0.839   0.839   0.839   0.839   0.839   0.839   0.839   0.839   0.839   0.839   0.839   0.839   0.839   0.839   0.839   0.839   0.839   0.839   0.839   0.839   0.839   0.839   0.839
    75.00    0.839   0.839   0.839   0.839   0.839   0.839   0.839   0.839   0.839   0.839   0.839   0.839   0.839   0.839   0.839   0.839   0.839   0.839   0.839   0.839   0.839   0.839   0.839   0.839   0.839   0.839   0.839   0.839   0.839   0.839   0.839   0.839   0.839
    70.00    0.839   0.839   0.839   0.839   0.839   0.839   0.839   0.839   0.839   0.839   0.839   0.839   0.839   0.839   0.839   0.839   0.839   0.839   0.839   0.839   0.839   0.839   0.839   0.839   0.839   0.839   0.839   0.839   0.839   0.839   0.839   0.839   0.839
    65.00    0.839   0.839   0.839   0.839   0.839   0.839   0.839   0.839   0.839   0.839   0.839   0.839   0.839   0.839   0.839   0.839   0.839   0.839   0.839   0.839   0.839   0.839   0.839   0.839   0.839   0.839   0.839   0.839   0.839   0.839   0.839   0.839   0.839
    60.00    0.839   0.839   0.839   0.839   0.839   0.839   0.839   0.839   0.839   0.839   0.839   0.839   0.839   0.839   0.839   0.839   0.839   0.839   0.839   0.839   0.839   0.839   0.839   0.839   0.839   0.839   0.839   0.839   0.839   0.839   0.839   0.839   0.839
    55.00    0.839   0.839   0.839   0.839   0.839   0.839   0.839   0.839   0.839   0.839   0.839   0.839   0.839   0.839   0.839   0.839   0.839   0.839   0.839   0.839   0.839   0.839   0.839   0.839   0.839   0.839   0.839   0.839   0.839   0.839   0.839   0.839   0.839
    50.00    0.839   0.839   0.839   0.839   0.839   0.839   0.839   0.839   0.839   0.839   0.839   0.839   0.839   0.839   0.839   0.839   0.839   0.839   0.839   0.839   0.839   0.839   0.839   0.839   0.839   0.839   0.839   0.839   0.839   0.839   0.839   0.839   0.839
    45.00    0.839   0.839   0.839   0.839   0.839   0.839   0.839   0.839   0.839   0.839   0.839   0.839   0.839   0.839   0.839   0.839   0.839   0.839   0.839   0.839   0.839   0.839   0.839   0.839   0.839   0.839   0.839   0.839   0.839   0.839   0.839   0.839   0.839
    40.00    0.839   0.839   0.839   0.839   0.839   0.839   0.839   0.839   0.839   0.839   0.839   0.839   0.839   0.839   0.839   0.839   0.839   0.839   0.839   0.839   0.839   0.839   0.839   0.839   0.839   0.839   0.839   0.839   0.839   0.839   0.839   0.839   0.839
    35.00    0.839   0.839   0.839   0.839   0.839   0.839   0.839   0.839   0.839   0.839   0.839   0.839   0.839   0.839   0.839   0.839   0.839   0.839   0.839   0.839   0.839   0.839   0.839   0.839   0.839   0.839   0.839   0.839   0.839   0.839   0.839   0.839   0.839
    30.00    0.839   0.839   0.839   0.839   0.839   0.839   0.839   0.839   0.839   0.839   0.839   0.839   0.839   0.839   0.839   0.839   0.839   0.839   0.839   0.839   0.839   0.839   0.839   0.839   0.839   0.839   0.839   0.839   0.839   0.839   0.839   0.839   0.839
    25.00    0.839   0.839   0.839   0.839   0.839   0.839   0.839   0.839   0.839   0.839   0.839   0.839   0.839   0.839   0.839   0.839   0.839   0.839   0.839   0.839   0.839   0.839   0.839   0.839   0.839   0.839   0.839   0.839   0.839   0.839   0.839   0.839   0.839
    20.00    0.839   0.839   0.839   0.839   0.839   0.839   0.839   0.839   0.839   0.839   0.839   0.839   0.839   0.839   0.839   0.839   0.839   0.839   0.839   0.839   0.839   0.839   0.839   0.839   0.839   0.839   0.839   0.839   0.839   0.839   0.839   0.839   0.839
    15.00    0.839   0.839   0.839   0.839   0.839   0.839   0.839   0.839   0.839   0.839   0.839   0.839   0.839   0.839   0.839   0.839   0.839   0.839   0.839   0.839   0.839   0.839   0.839   0.839   0.839   0.839   0.839   0.839   0.839   0.839   0.839   0.839   0.839
    10.00    0.839   0.839   0.839   0.839   0.839   0.839   0.839   0.839   0.839   0.839   0.839   0.839   0.839   0.839   0.839   0.839   0.839   0.839   0.839   0.839   0.839   0.839   0.839   0.839   0.839   0.839   0.839   0.839   0.839   0.839   0.839   0.839   0.839

   Mean standard deviation across all grid points:
      u component:    1.186 m/s
      v component:    1.242 m/s
      w component:    0.839 m/s


U-component (X) statistics from the hub grid point:

   Mean =  18.2000 m/s
   TI   =   5.2284 %


Normalizing Parameters for Binary Data (approximate statistics):

   UBar  =  18.2000 m/s
   TI(u) =   5.2284 %
   TI(v) =   6.8216 %
   TI(w) =   4.6099 %

   Height Offset =  10.0000 m
   Grid Base     =  10.0000 m

Nyquist frequency of turbulent wind field =         5.000 Hz


Processing complete.  10.953 CPU seconds used.
