
This summary information was generated by AeroDyn on 06-Nov-2019 at 16:59:04.

======  General Options  ============================================================================
            1  WakeMod        - Type of wake/induction model: Blade-Element/Momentum Theory
            2  AFAeroMod      - Type of blade airfoil aerodynamics model: Beddoes-Leishman unsteady model
            0  TwrPotent      - Type tower influence on wind based on potential flow around the tower: none
            T  TwrShadow      - Calculate tower influence on wind based on downstream tower shadow? Yes
            T  TwrAero        - Calculate tower aerodynamic loads? Yes
======  Blade-Element/Momentum Theory Options  ======================================================
            2  SkewMod        - Type of skewed-wake correction model: Pitt/Peters
            T  TipLoss        - Use the Prandtl tip-loss model? Yes
            T  HubLoss        - Use the Prandtl hub-loss model? Yes
            T  TanInd         - Include tangential induction in BEMT calculations? Yes
            F  AIDrag         - Include the drag term in the axial-induction calculation? No
            F  AIDrag         - Include the drag term in the tangential-induction calculation? No
   5.0000E-05  IndToler       - Convergence tolerance for BEM induction factors (radians)
======  Beddoes-Leishman Unsteady Airfoil Aerodynamics Options  =====================================
            3  UAMod          - Unsteady Aero Model: Minemma/Pierce variant (changes in Cc and Cm)
            T  FLookup        - Use a lookup for f'? Yes
======  Outputs  ====================================================================================
            9  NBlOuts        - Number of blade nodes selected for output
           30  NumBlNds       - Number of blade nodes in the analysis
               Blade nodes selected for output:  Output node  Analysis node
                                                 -----------  -------------
                                                           1              1
                                                           2              4
                                                           3              7
                                                           4             12
                                                           5             18
                                                           6             23
                                                           7             27
                                                           8             29
                                                           9             30
            0  NTwOuts        - Number of tower nodes selected for output
               Requested Output Channels:
               Col   Parameter  Units
               ----  ---------  -----
                  0  Time       (s)       
                  1  RtSpeed    (rpm)     
                  2  RtTSR      (-)       
                  3  RtVAvgxh   (m/s)     
                  4  RtVAvgyh   (m/s)     
                  5  RtVAvgzh   (m/s)     
                  6  RtSkew     (deg)     
                  7  RtAeroFxh  (N)       
                  8  RtAeroFyh  (N)       
                  9  RtAeroFzh  (N)       
                 10  RtAeroMxh  (N-m)     
                 11  RtAeroMyh  (N-m)     
                 12  RtAeroMzh  (N-m)     
                 13  RtAeroPwr  (W)       
                 14  RtArea     (m^2)     
                 15  RtAeroCp   (-)       
                 16  RtAeroCq   (-)       
                 17  RtAeroCt   (-)       
