
This summary information was generated by ElastoDyn on 06-Nov-2019 at 16:59:04.


Turbine features:

            Upwind, three-bladed rotor with rigid hub.
            The model has 10 of 24 DOFs active (enabled) at start-up.
 Disabled   Platform horizontal surge translation DOF 
 Disabled   Platform horizontal sway translation DOF 
 Disabled   Platform vertical heave translation DOF 
 Disabled   Platform roll tilt rotation DOF 
 Disabled   Platform pitch tilt rotation DOF 
 Disabled   Platform yaw rotation DOF 
 Disabled   1st tower fore-aft bending mode DOF 
 Disabled   1st tower side-to-side bending mode DOF 
 Disabled   2nd tower fore-aft bending mode DOF 
 Disabled   2nd tower side-to-side bending mode DOF 
 Disabled   Nacelle yaw DOF 
 Disabled   Rotor-furl DOF 
 Enabled    Variable speed generator DOF 
 Disabled   Drivetrain rotational-flexibility DOF 
 Disabled   Tail-furl DOF 
 Enabled    1st flapwise bending-mode DOF of blade 1 
 Enabled    1st edgewise bending-mode DOF of blade 1 
 Enabled    2nd flapwise bending-mode DOF of blade 1 
 Enabled    1st flapwise bending-mode DOF of blade 2 
 Enabled    1st edgewise bending-mode DOF of blade 2 
 Enabled    2nd flapwise bending-mode DOF of blade 2 
 Enabled    1st flapwise bending-mode DOF of blade 3 
 Enabled    1st edgewise bending-mode DOF of blade 3 
 Enabled    2nd flapwise bending-mode DOF of blade 3 


Time steps:

    Structural            (s)        0.00625000


Some calculated parameters:

    Hub-Height            (m)           108.436
    Flexible Tower Length (m)           108.000
    Flexible Blade Length (m)            63.000


Rotor mass properties:

    Rotor Mass            (kg)        72769.102
    Rotor Inertia         (kg-m^2) 29672002.000
                                        Blade 1      Blade 2      Blade 3
                                        -------      -------      -------
    Mass                  (kg)        14931.369    14931.369    14931.369
    Second Mass Moment    (kg-m^2)  8719240.000  8719240.000  8719240.000
    First Mass Moment     (kg-m)     279692.156   279692.156   279692.156
    Center of Mass        (m)            18.732       18.732       18.732


Additional mass properties:

    Tower-top Mass        (kg)       263381.094
    Tower Mass            (kg)       554248.062
    Platform Mass         (kg)            0.000
    Mass Incl. Platform   (kg)       817629.125


Interpolated tower properties:

Node  TwFract   HNodes  DHNodes  TMassDen    FAStiff    SSStiff
 (-)      (-)      (m)      (m)    (kg/m)     (Nm^2)     (Nm^2)
   1    0.025    2.700    5.400  8998.884  9.725E+11  9.725E+11
   2    0.075    8.100    5.400  8953.852  9.580E+11  9.580E+11
   3    0.125   13.500    5.400  7921.400  8.451E+11  8.451E+11
   4    0.175   18.900    5.400  7921.400  8.451E+11  8.451E+11
   5    0.225   24.300    5.400  7325.200  7.825E+11  7.825E+11
   6    0.275   29.700    5.400  7325.200  7.825E+11  7.825E+11
   7    0.325   35.100    5.400  6187.200  6.625E+11  6.625E+11
   8    0.375   40.500    5.400  6187.200  6.625E+11  6.625E+11
   9    0.425   45.900    5.400  5279.700  5.665E+11  5.665E+11
  10    0.475   51.300    5.400  5279.700  5.665E+11  5.665E+11
  11    0.525   56.700    5.400  4403.270  4.713E+11  4.713E+11
  12    0.575   62.100    5.400  4371.118  4.611E+11  4.611E+11
  13    0.625   67.500    5.400  3591.254  3.635E+11  3.635E+11
  14    0.675   72.900    5.400  3334.673  2.926E+11  2.926E+11
  15    0.725   78.300    5.400  3149.379  2.423E+11  2.423E+11
  16    0.775   83.700    5.400  2883.886  1.875E+11  1.875E+11
  17    0.825   89.100    5.400  2522.945  1.402E+11  1.402E+11
  18    0.875   94.500    5.400  2272.251  1.037E+11  1.037E+11
  19    0.925   99.900    5.400  2485.905  9.417E+10  9.417E+10
  20    0.975  105.300    5.400  2244.101  7.003E+10  7.003E+10


Interpolated blade 1 properties:

Node  BlFract   RNodes  DRNodes PitchAxis  StrcTwst  BMassDen    FlpStff    EdgStff
 (-)      (-)      (m)      (m)       (-)     (deg)    (kg/m)     (Nm^2)     (Nm^2)
   1    0.017    3.050    2.100     0.494    19.763   900.501  8.251E+09  8.197E+09
   2    0.050    5.150    2.100     0.445    18.885   666.957  5.921E+09  6.484E+09
   3    0.083    7.250    2.100     0.386    17.625   491.954  4.082E+09  5.140E+09
   4    0.117    9.350    2.100     0.336    16.076   399.942  3.033E+09  4.660E+09
   5    0.150   11.450    2.100     0.301    14.337   365.057  2.707E+09  4.738E+09
   6    0.183   13.550    2.100     0.277    12.538   328.925  2.605E+09  4.450E+09
   7    0.217   15.650    2.100     0.261    10.799   302.697  2.464E+09  3.964E+09
   8    0.250   17.750    2.100     0.250     9.234   299.442  2.285E+09  3.763E+09
   9    0.283   19.850    2.100     0.244     7.726   282.922  1.955E+09  3.174E+09
  10    0.317   21.950    2.100     0.241     6.176   271.419  1.694E+09  2.788E+09
  11    0.350   24.050    2.100     0.241     4.759   263.542  1.470E+09  2.542E+09
  12    0.383   26.150    2.100     0.244     3.638   256.222  1.276E+09  2.286E+09
  13    0.417   28.250    2.100     0.250     2.888   246.991  1.098E+09  2.010E+09
  14    0.450   30.350    2.100     0.258     2.306   234.161  9.017E+08  1.677E+09
  15    0.483   32.450    2.100     0.268     1.825   219.517  7.077E+08  1.341E+09
  16    0.517   34.550    2.100     0.279     1.419   206.071  5.430E+08  1.062E+09
  17    0.550   36.650    2.100     0.288     1.061   194.192  4.151E+08  8.485E+08
  18    0.583   38.750    2.100     0.298     0.750   180.411  3.097E+08  6.520E+08
  19    0.617   40.850    2.100     0.305     0.482   163.040  2.228E+08  4.671E+08
  20    0.650   42.950    2.100     0.311     0.239   144.672  1.597E+08  3.278E+08
  21    0.683   45.050    2.100     0.315     0.002   128.042  1.174E+08  2.405E+08
  22    0.717   47.150    2.100     0.317    -0.230   114.656  8.972E+07  1.967E+08
  23    0.750   49.250    2.100     0.316    -0.434   103.144  7.034E+07  1.706E+08
  24    0.783   51.350    2.100     0.311    -0.633    92.302  5.564E+07  1.494E+08
  25    0.817   53.450    2.100     0.303    -0.869    79.223  4.275E+07  1.161E+08
  26    0.850   55.550    2.100     0.292    -1.187    65.466  3.070E+07  8.466E+07
  27    0.883   57.650    2.100     0.282    -1.668    52.489  1.901E+07  6.458E+07
  28    0.917   59.750    2.100     0.274    -2.359    34.137  8.675E+06  3.448E+07
  29    0.950   61.850    2.100     0.266    -3.191    16.038  1.831E+06  7.993E+06
  30    0.983   63.950    2.100     0.255    -4.158     6.046  6.114E+05  2.686E+06


Interpolated blade 2 properties:

Node  BlFract   RNodes  DRNodes PitchAxis  StrcTwst  BMassDen    FlpStff    EdgStff
 (-)      (-)      (m)      (m)       (-)     (deg)    (kg/m)     (Nm^2)     (Nm^2)
   1    0.017    3.050    2.100     0.494    19.763   900.501  8.251E+09  8.197E+09
   2    0.050    5.150    2.100     0.445    18.885   666.957  5.921E+09  6.484E+09
   3    0.083    7.250    2.100     0.386    17.625   491.954  4.082E+09  5.140E+09
   4    0.117    9.350    2.100     0.336    16.076   399.942  3.033E+09  4.660E+09
   5    0.150   11.450    2.100     0.301    14.337   365.057  2.707E+09  4.738E+09
   6    0.183   13.550    2.100     0.277    12.538   328.925  2.605E+09  4.450E+09
   7    0.217   15.650    2.100     0.261    10.799   302.697  2.464E+09  3.964E+09
   8    0.250   17.750    2.100     0.250     9.234   299.442  2.285E+09  3.763E+09
   9    0.283   19.850    2.100     0.244     7.726   282.922  1.955E+09  3.174E+09
  10    0.317   21.950    2.100     0.241     6.176   271.419  1.694E+09  2.788E+09
  11    0.350   24.050    2.100     0.241     4.759   263.542  1.470E+09  2.542E+09
  12    0.383   26.150    2.100     0.244     3.638   256.222  1.276E+09  2.286E+09
  13    0.417   28.250    2.100     0.250     2.888   246.991  1.098E+09  2.010E+09
  14    0.450   30.350    2.100     0.258     2.306   234.161  9.017E+08  1.677E+09
  15    0.483   32.450    2.100     0.268     1.825   219.517  7.077E+08  1.341E+09
  16    0.517   34.550    2.100     0.279     1.419   206.071  5.430E+08  1.062E+09
  17    0.550   36.650    2.100     0.288     1.061   194.192  4.151E+08  8.485E+08
  18    0.583   38.750    2.100     0.298     0.750   180.411  3.097E+08  6.520E+08
  19    0.617   40.850    2.100     0.305     0.482   163.040  2.228E+08  4.671E+08
  20    0.650   42.950    2.100     0.311     0.239   144.672  1.597E+08  3.278E+08
  21    0.683   45.050    2.100     0.315     0.002   128.042  1.174E+08  2.405E+08
  22    0.717   47.150    2.100     0.317    -0.230   114.656  8.972E+07  1.967E+08
  23    0.750   49.250    2.100     0.316    -0.434   103.144  7.034E+07  1.706E+08
  24    0.783   51.350    2.100     0.311    -0.633    92.302  5.564E+07  1.494E+08
  25    0.817   53.450    2.100     0.303    -0.869    79.223  4.275E+07  1.161E+08
  26    0.850   55.550    2.100     0.292    -1.187    65.466  3.070E+07  8.466E+07
  27    0.883   57.650    2.100     0.282    -1.668    52.489  1.901E+07  6.458E+07
  28    0.917   59.750    2.100     0.274    -2.359    34.137  8.675E+06  3.448E+07
  29    0.950   61.850    2.100     0.266    -3.191    16.038  1.831E+06  7.993E+06
  30    0.983   63.950    2.100     0.255    -4.158     6.046  6.114E+05  2.686E+06


Interpolated blade 3 properties:

Node  BlFract   RNodes  DRNodes PitchAxis  StrcTwst  BMassDen    FlpStff    EdgStff
 (-)      (-)      (m)      (m)       (-)     (deg)    (kg/m)     (Nm^2)     (Nm^2)
   1    0.017    3.050    2.100     0.494    19.763   900.501  8.251E+09  8.197E+09
   2    0.050    5.150    2.100     0.445    18.885   666.957  5.921E+09  6.484E+09
   3    0.083    7.250    2.100     0.386    17.625   491.954  4.082E+09  5.140E+09
   4    0.117    9.350    2.100     0.336    16.076   399.942  3.033E+09  4.660E+09
   5    0.150   11.450    2.100     0.301    14.337   365.057  2.707E+09  4.738E+09
   6    0.183   13.550    2.100     0.277    12.538   328.925  2.605E+09  4.450E+09
   7    0.217   15.650    2.100     0.261    10.799   302.697  2.464E+09  3.964E+09
   8    0.250   17.750    2.100     0.250     9.234   299.442  2.285E+09  3.763E+09
   9    0.283   19.850    2.100     0.244     7.726   282.922  1.955E+09  3.174E+09
  10    0.317   21.950    2.100     0.241     6.176   271.419  1.694E+09  2.788E+09
  11    0.350   24.050    2.100     0.241     4.759   263.542  1.470E+09  2.542E+09
  12    0.383   26.150    2.100     0.244     3.638   256.222  1.276E+09  2.286E+09
  13    0.417   28.250    2.100     0.250     2.888   246.991  1.098E+09  2.010E+09
  14    0.450   30.350    2.100     0.258     2.306   234.161  9.017E+08  1.677E+09
  15    0.483   32.450    2.100     0.268     1.825   219.517  7.077E+08  1.341E+09
  16    0.517   34.550    2.100     0.279     1.419   206.071  5.430E+08  1.062E+09
  17    0.550   36.650    2.100     0.288     1.061   194.192  4.151E+08  8.485E+08
  18    0.583   38.750    2.100     0.298     0.750   180.411  3.097E+08  6.520E+08
  19    0.617   40.850    2.100     0.305     0.482   163.040  2.228E+08  4.671E+08
  20    0.650   42.950    2.100     0.311     0.239   144.672  1.597E+08  3.278E+08
  21    0.683   45.050    2.100     0.315     0.002   128.042  1.174E+08  2.405E+08
  22    0.717   47.150    2.100     0.317    -0.230   114.656  8.972E+07  1.967E+08
  23    0.750   49.250    2.100     0.316    -0.434   103.144  7.034E+07  1.706E+08
  24    0.783   51.350    2.100     0.311    -0.633    92.302  5.564E+07  1.494E+08
  25    0.817   53.450    2.100     0.303    -0.869    79.223  4.275E+07  1.161E+08
  26    0.850   55.550    2.100     0.292    -1.187    65.466  3.070E+07  8.466E+07
  27    0.883   57.650    2.100     0.282    -1.668    52.489  1.901E+07  6.458E+07
  28    0.917   59.750    2.100     0.274    -2.359    34.137  8.675E+06  3.448E+07
  29    0.950   61.850    2.100     0.266    -3.191    16.038  1.831E+06  7.993E+06
  30    0.983   63.950    2.100     0.255    -4.158     6.046  6.114E+05  2.686E+06


Requested Outputs:


 Col   Parameter  Units     
 ---   ---------- ----------
   0   Time       (s)       
   1   Azimuth    (deg)     
   2   BldPitch1  (deg)     
   3   GenSpeed   (rpm)     
   4   IPDefl1    (m)       
   5   LSSGagMya  (kN-m)    
   6   LSSGagMza  (kN-m)    
   7   OoPDefl1   (m)       
   8   RootFxb1   (kN)      
   9   RootFyb1   (kN)      
  10   RootFzb1   (kN)      
  11   RootMxb1   (kN-m)    
  12   RootMyb1   (kN-m)    
  13   RootMzb1   (kN-m)    
  14   RotSpeed   (rpm)     
  15   RotTorq    (kN-m)    
  16   Spn2MLxb1  (kN-m)    
  17   Spn2MLyb1  (kN-m)    
  18   TTDspFA    (m)       
  19   TTDspSS    (m)       
  20   TTDspTwst  (deg)     
  21   TwrBsFxt   (kN)      
  22   TwrBsFyt   (kN)      
  23   TwrBsFzt   (kN)      
  24   TwrBsMxt   (kN-m)    
  25   TwrBsMyt   (kN-m)    
  26   TwrBsMzt   (kN-m)    
  27   TwstDefl1  (deg)     
  28   YawBrFxp   (kN)      
  29   YawBrFyp   (kN)      
  30   YawBrFzp   (kN)      
  31   YawBrMxp   (kN-m)    
  32   YawBrMyp   (kN-m)    
  33   YawBrMzp   (kN-m)    
